Version 4
SHEET 1 1212 680
WIRE 128 176 128 80
WIRE 144 176 128 176
WIRE 208 176 208 80
WIRE 208 176 192 176
WIRE 128 224 -240 224
WIRE 144 224 128 224
WIRE 320 224 208 224
WIRE 480 224 400 224
WIRE 480 288 480 224
WIRE -240 320 -240 224
WIRE -240 464 -240 400
WIRE 384 464 -240 464
WIRE 480 464 480 368
WIRE 480 464 384 464
WIRE 384 512 384 464
FLAG 384 512 0
SYMBOL ind 304 240 R270
WINDOW 0 32 56 VTop 2
WINDOW 3 4 55 VBottom 2
SYMATTR InstName L1
SYMATTR Value 100n
SYMBOL res 464 272 R0
SYMATTR InstName R1
SYMATTR Value 20
SYMBOL voltage -240 304 R0
WINDOW 123 0 0 Left 2
WINDOW 39 24 124 Left 2
SYMATTR SpiceLine Rser=0 Cpar=0
SYMATTR InstName V2
SYMATTR Value 48V
SYMBOL sw 224 224 R90
WINDOW 0 38 -7 VRight 2
WINDOW 3 33 103 VRight 2
SYMATTR InstName S1
SYMATTR Value MYSW
SYMBOL voltage 112 80 R270
WINDOW 123 0 0 Left 2
WINDOW 39 74 -132 VRight 2
WINDOW 0 -5 -28 VRight 2
WINDOW 3 46 -138 VRight 2
SYMATTR SpiceLine Rser=0 Cpar=0
SYMATTR InstName V1
SYMATTR Value PULSE(0 5 0 0.5u 1u 0.025m 0.05m 1)
TEXT -104 560 Left 2 !.tran 0.5m
TEXT -104 600 Left 2 !.model MYSW SW(Roff=1G Ron=0.01m Vt=1 Vh=0)
